    2
GaP                                     
 GA  0.000000000000E+00  0.000000000000E+00  0.000000000000E+00
 P   1.366868401765E+00  1.366868401765E+00  1.366868401765E+00
    2
GaP                                      E -2.2659455260778E+03 DE-6.4E-12( 10)
 GA  0.000000000000E+00  0.000000000000E+00  0.000000000000E+00
 P   1.366868401765E+00  1.366868401765E+00  1.366868401765E+00
    2
GaP                                      E -2.2659455260890E+03 DE 4.1E-12( 10)
 GA  0.000000000000E+00  0.000000000000E+00  0.000000000000E+00
 P   1.346365375739E+00  1.366868401765E+00  1.366868401765E+00
    2
GaP                                      E -2.2659453650470E+03 DE-9.1E-11(  7)
 GA  0.000000000000E+00  0.000000000000E+00  0.000000000000E+00
 P   1.346365375739E+00  1.366868401765E+00  1.366868401765E+00
    2
GaP                                      E -2.2659453650470E+03 DE-2.3E-12(  2)
 GA  0.000000000000E+00  0.000000000000E+00  0.000000000000E+00
 P   1.387371427791E+00  1.366868401765E+00  1.366868401765E+00
    2
GaP                                      E -2.2659453679069E+03 DE-3.6E-12(  9)
 GA  0.000000000000E+00  0.000000000000E+00  0.000000000000E+00
 P   1.387371427791E+00  1.366868401765E+00  1.366868401765E+00
    2
GaP                                      E -2.2659453679069E+03 DE-3.6E-12( 10)
 GA  0.000000000000E+00  0.000000000000E+00  0.000000000000E+00
 P   1.366868401765E+00  1.366868401765E+00  1.366868401765E+00
    2
GaP                                      E -2.2659455260825E+03 DE 5.9E-12( 10)
 GA  0.000000000000E+00  0.000000000000E+00  0.000000000000E+00
 P   1.366868401765E+00  1.346365375739E+00  1.346365375739E+00
    2
GaP                                      E -2.2659451052595E+03 DE 2.5E-11(  7)
 GA -1.376644803330E-02  0.000000000000E+00  0.000000000000E+00
 P   1.380634849798E+00  1.346365375739E+00  1.346365375739E+00
    2
GaP                                      E -2.2659452072249E+03 DE 1.8E-12(  9)
 GA -1.138831441657E-02  0.000000000000E+00  0.000000000000E+00
 P   1.378256716182E+00  1.346365375739E+00  1.346365375739E+00
    2
GaP                                      E -2.2659452119348E+03 DE-3.4E-11(  7)
 GA -1.138831441657E-02  0.000000000000E+00  0.000000000000E+00
 P   1.378256716182E+00  1.346365375739E+00  1.346365375739E+00
    2
GaP                                      E -2.2659452119348E+03 DE-4.1E-12(  2)
 GA  0.000000000000E+00  0.000000000000E+00  0.000000000000E+00
 P   1.366868401765E+00  1.387371427791E+00  1.387371427791E+00
    2
GaP                                      E -2.2659451052659E+03 DE 2.3E-12(  9)
 GA  1.376980360116E-02  0.000000000000E+00  0.000000000000E+00
 P   1.353098598164E+00  1.387371427791E+00  1.387371427791E+00
    2
GaP                                      E -2.2659452072184E+03 DE-9.1E-13(  9)
 GA  1.138831011914E-02  0.000000000000E+00  0.000000000000E+00
 P   1.355480091646E+00  1.387371427791E+00  1.387371427791E+00
    2
GaP                                      E -2.2659452119414E+03 DE-2.6E-11(  7)
 GA  1.138831011914E-02  0.000000000000E+00  0.000000000000E+00
 P   1.355480091646E+00  1.387371427791E+00  1.387371427791E+00
