    2
GaP                                     
 GA  0.000000000000E+00  0.000000000000E+00  0.000000000000E+00
 P   1.355306686945E+00 -1.355306686945E+00 -1.355306686945E+00
    2
GaP                                      E -2.2659452574097E+03 DE-5.0E-12( 10)
 GA  0.000000000000E+00  0.000000000000E+00  0.000000000000E+00
 P   1.367698321526E+00 -1.367698321526E+00 -1.367698321526E+00
    2
GaP                                      E -2.2659455459757E+03 DE 5.0E-12(  9)
 GA  0.000000000000E+00  0.000000000000E+00  0.000000000000E+00
 P   1.366777739953E+00 -1.366777739953E+00 -1.366777739953E+00
    2
GaP                                      E -2.2659455479812E+03 DE-1.4E-12(  8)
 GA  0.000000000000E+00  0.000000000000E+00  0.000000000000E+00
 P   1.366757540579E+00 -1.366757540579E+00 -1.366757540579E+00
    2
GaP                                      E -2.2659455254164E+03 DE 9.1E-13(  6)
 GA  0.000000000000E+00  0.000000000000E+00  0.000000000000E+00
 P   1.366868705398E+00 -1.366868705398E+00 -1.366868705398E+00
    2
GaP                                      E -2.2659455254384E+03 DE-2.5E-11(  6)
 GA  0.000000000000E+00  0.000000000000E+00  0.000000000000E+00
 P   1.366868294616E+00 -1.366868294616E+00 -1.366868294616E+00
    2
GaP                                      E -2.2659455260788E+03 DE 1.2E-11(  3)
 GA  0.000000000000E+00  0.000000000000E+00  0.000000000000E+00
 P   1.366868294616E+00 -1.366868294616E+00 -1.366868294616E+00
