    2
GaP                                     
 GA  0.000000000000E+00  0.000000000000E+00  0.000000000000E+00
 P   1.395471785375E+00  1.395471785375E+00  1.395471785375E+00
    2
GaP                                      E -2.2663809220612E+03 DE 8.6E-12( 10)
 GA  0.000000000000E+00  0.000000000000E+00  0.000000000000E+00
 P   1.395471785375E+00  1.395471785375E+00  1.395471785375E+00
    2
GaP                                      E -2.2663809220681E+03 DE 1.4E-12( 10)
 GA  0.000000000000E+00  0.000000000000E+00  0.000000000000E+00
 P   1.374539708594E+00  1.395471785375E+00  1.395471785375E+00
    2
GaP                                      E -2.2663807801216E+03 DE 8.2E-12(  9)
 GA  0.000000000000E+00  0.000000000000E+00  0.000000000000E+00
 P   1.374539708594E+00  1.395471785375E+00  1.395471785375E+00
    2
GaP                                      E -2.2663807801216E+03 DE-3.2E-12(  2)
 GA  0.000000000000E+00  0.000000000000E+00  0.000000000000E+00
 P   1.416403862156E+00  1.395471785375E+00  1.395471785375E+00
    2
GaP                                      E -2.2663807829824E+03 DE-6.8E-12(  9)
 GA  0.000000000000E+00  0.000000000000E+00  0.000000000000E+00
 P   1.416403862156E+00  1.395471785375E+00  1.395471785375E+00
    2
GaP                                      E -2.2663807829824E+03 DE-1.8E-12( 10)
 GA  0.000000000000E+00  0.000000000000E+00  0.000000000000E+00
 P   1.395471785375E+00  1.395471785375E+00  1.395471785375E+00
    2
GaP                                      E -2.2663809220793E+03 DE-4.5E-13( 10)
 GA  0.000000000000E+00  0.000000000000E+00  0.000000000000E+00
 P   1.395471785375E+00  1.374539708594E+00  1.374539708594E+00
    2
GaP                                      E -2.2663805682855E+03 DE 1.4E-12(  9)
 GA -2.097180096465E-02  0.000000000000E+00  0.000000000000E+00
 P   1.416443586340E+00  1.374539708594E+00  1.374539708594E+00
    2
GaP                                      E -2.2663805463699E+03 DE-6.8E-12(  9)
 GA -9.737886389101E-03  0.000000000000E+00  0.000000000000E+00
 P   1.405209671764E+00  1.374539708594E+00  1.374539708594E+00
    2
GaP                                      E -2.2663806331899E+03 DE 2.3E-12(  9)
 GA -9.737886389101E-03  0.000000000000E+00  0.000000000000E+00
 P   1.405209671764E+00  1.374539708594E+00  1.374539708594E+00
    2
GaP                                      E -2.2663806331899E+03 DE 1.8E-12(  2)
 GA  0.000000000000E+00  0.000000000000E+00  0.000000000000E+00
 P   1.395471785375E+00  1.416403862156E+00  1.416403862156E+00
    2
GaP                                      E -2.2663805682825E+03 DE 2.8E-11(  8)
 GA  2.097667901905E-02  0.000000000000E+00  0.000000000000E+00
 P   1.374495106356E+00  1.416403862156E+00  1.416403862156E+00
    2
GaP                                      E -2.2663805462925E+03 DE-4.5E-13(  9)
 GA  9.738027940865E-03  0.000000000000E+00  0.000000000000E+00
 P   1.385733757434E+00  1.416403862156E+00  1.416403862156E+00
    2
GaP                                      E -2.2663806331873E+03 DE 4.5E-13(  9)
 GA  9.738027940865E-03  0.000000000000E+00  0.000000000000E+00
 P   1.385733757434E+00  1.416403862156E+00  1.416403862156E+00
