    2
GaP                                     
 GA  0.000000000000E+00  0.000000000000E+00  0.000000000000E+00
 P   1.365798720720E+00  1.365798720720E+00  1.365798720720E+00
    2
GaP                                      E -2.2659469816462E+03 DE 7.3E-12( 11)
 GA  0.000000000000E+00  0.000000000000E+00  0.000000000000E+00
 P   1.365798720720E+00  1.365798720720E+00  1.365798720720E+00
    2
GaP                                      E -2.2659469816490E+03 DE 2.7E-12( 11)
 GA  0.000000000000E+00  0.000000000000E+00  0.000000000000E+00
 P   1.345311739909E+00  1.365798720720E+00  1.365798720720E+00
    2
GaP                                      E -2.2659468181350E+03 DE 2.7E-12( 10)
 GA  0.000000000000E+00  0.000000000000E+00  0.000000000000E+00
 P   1.345311739909E+00  1.365798720720E+00  1.365798720720E+00
    2
GaP                                      E -2.2659468181350E+03 DE 3.2E-12(  2)
 GA  0.000000000000E+00  0.000000000000E+00  0.000000000000E+00
 P   1.386285701531E+00  1.365798720720E+00  1.365798720720E+00
    2
GaP                                      E -2.2659468234144E+03 DE-4.5E-13( 10)
 GA  0.000000000000E+00  0.000000000000E+00  0.000000000000E+00
 P   1.386285701531E+00  1.365798720720E+00  1.365798720720E+00
    2
GaP                                      E -2.2659468234145E+03 DE-1.4E-12( 11)
 GA  0.000000000000E+00  0.000000000000E+00  0.000000000000E+00
 P   1.365798720720E+00  1.365798720720E+00  1.365798720720E+00
    2
GaP                                      E -2.2659469816521E+03 DE-9.1E-13( 11)
 GA  0.000000000000E+00  0.000000000000E+00  0.000000000000E+00
 P   1.365798720720E+00  1.345311739909E+00  1.345311739909E+00
    2
GaP                                      E -2.2659465565109E+03 DE-4.3E-11(  7)
 GA -1.351529055914E-02  0.000000000000E+00  0.000000000000E+00
 P   1.379314011279E+00  1.345311739909E+00  1.345311739909E+00
    2
GaP                                      E -2.2659466618256E+03 DE 4.1E-12(  9)
 GA -1.144973587322E-02  0.000000000000E+00  0.000000000000E+00
 P   1.377248456593E+00  1.345311739909E+00  1.345311739909E+00
    2
GaP                                      E -2.2659466654133E+03 DE-1.2E-10(  6)
 GA -1.144973587322E-02  0.000000000000E+00  0.000000000000E+00
 P   1.377248456593E+00  1.345311739909E+00  1.345311739909E+00
    2
GaP                                      E -2.2659466654132E+03 DE-8.2E-12(  2)
 GA  0.000000000000E+00  0.000000000000E+00  0.000000000000E+00
 P   1.365798720720E+00  1.386285701531E+00  1.386285701531E+00
    2
GaP                                      E -2.2659465565177E+03 DE-7.3E-12( 10)
 GA  1.351896906420E-02  0.000000000000E+00  0.000000000000E+00
 P   1.352279751656E+00  1.386285701531E+00  1.386285701531E+00
    2
GaP                                      E -2.2659466618199E+03 DE 1.2E-11(  9)
 GA  1.144968533982E-02  0.000000000000E+00  0.000000000000E+00
 P   1.354349035380E+00  1.386285701531E+00  1.386285701531E+00
    2
GaP                                      E -2.2659466654203E+03 DE-1.2E-10(  6)
 GA  1.144968533982E-02  0.000000000000E+00  0.000000000000E+00
 P   1.354349035380E+00  1.386285701531E+00  1.386285701531E+00
