    2
GaP                                     
 GA  0.000000000000E+00  0.000000000000E+00  0.000000000000E+00
 P   1.375774228740E+00  1.375774228740E+00  1.375774228740E+00
    2
GaP                                     
 GA  0.000000000000E+00  0.000000000000E+00  0.000000000000E+00
 P   1.355306686945E+00 -1.355306686945E+00 -1.355306686945E+00
    2
GaP                                      E -2.2659452574258E+03 DE-2.2E-11( 10)
 GA  0.000000000000E+00  0.000000000000E+00  0.000000000000E+00
 P   1.367698456377E+00 -1.367698456377E+00 -1.367698456377E+00
    2
GaP                                      E -2.2659455459868E+03 DE 1.0E-11(  9)
 GA  0.000000000000E+00  0.000000000000E+00  0.000000000000E+00
 P   1.366777844562E+00 -1.366777844562E+00 -1.366777844562E+00
    2
GaP                                      E -2.2659455479928E+03 DE 1.4E-11(  8)
 GA  0.000000000000E+00  0.000000000000E+00  0.000000000000E+00
 P   1.366757612452E+00 -1.366757612452E+00 -1.366757612452E+00
    2
GaP                                      E -2.2659455254288E+03 DE-4.1E-11(  6)
 GA  0.000000000000E+00  0.000000000000E+00  0.000000000000E+00
 P   1.366868839153E+00 -1.366868839153E+00 -1.366868839153E+00
    2
GaP                                      E -2.2659455254481E+03 DE-2.0E-11(  6)
 GA  0.000000000000E+00  0.000000000000E+00  0.000000000000E+00
 P   1.366868401765E+00 -1.366868401765E+00 -1.366868401765E+00
    2
GaP                                      E -2.2659455260871E+03 DE-1.3E-11(  3)
 GA  0.000000000000E+00  0.000000000000E+00  0.000000000000E+00
 P   1.366868401765E+00 -1.366868401765E+00 -1.366868401765E+00
