    2
GaP                                     
 GA  0.000000000000E+00  0.000000000000E+00  0.000000000000E+00
 P   1.368766141530E+00  1.368766141530E+00  1.368766141530E+00
    2
GaP                                      E -2.2662735037931E+03 DE 9.1E-11( 10)
 GA  0.000000000000E+00  0.000000000000E+00  0.000000000000E+00
 P   1.368766141530E+00  1.368766141530E+00  1.368766141530E+00
    2
GaP                                      E -2.2662735037942E+03 DE 7.4E-11( 10)
 GA  0.000000000000E+00  0.000000000000E+00  0.000000000000E+00
 P   1.348234649407E+00  1.368766141530E+00  1.368766141530E+00
    2
GaP                                      E -2.2662733474919E+03 DE 8.6E-12( 10)
 GA  0.000000000000E+00  0.000000000000E+00  0.000000000000E+00
 P   1.348234649407E+00  1.368766141530E+00  1.368766141530E+00
    2
GaP                                      E -2.2662733474919E+03 DE 4.5E-13(  2)
 GA  0.000000000000E+00  0.000000000000E+00  0.000000000000E+00
 P   1.389297633653E+00  1.368766141530E+00  1.368766141530E+00
    2
GaP                                      E -2.2662733521540E+03 DE-5.9E-12( 10)
 GA  0.000000000000E+00  0.000000000000E+00  0.000000000000E+00
 P   1.389297633653E+00  1.368766141530E+00  1.368766141530E+00
    2
GaP                                      E -2.2662733521540E+03 DE-5.5E-12( 10)
 GA  0.000000000000E+00  0.000000000000E+00  0.000000000000E+00
 P   1.368766141530E+00  1.368766141530E+00  1.368766141530E+00
    2
GaP                                      E -2.2662735037853E+03 DE 7.4E-11( 10)
 GA  0.000000000000E+00  0.000000000000E+00  0.000000000000E+00
 P   1.368766141530E+00  1.348234649407E+00  1.348234649407E+00
    2
GaP                                      E -2.2662731263538E+03 DE 4.5E-12( 10)
 GA -1.531938110573E-02  0.000000000000E+00  0.000000000000E+00
 P   1.384085522636E+00  1.348234649407E+00  1.348234649407E+00
    2
GaP                                      E -2.2662732159540E+03 DE 6.4E-12(  9)
 GA -1.170309168672E-02  0.000000000000E+00  0.000000000000E+00
 P   1.380469233217E+00  1.348234649407E+00  1.348234649407E+00
    2
GaP                                      E -2.2662732254354E+03 DE 1.4E-12(  9)
 GA -1.170309168672E-02  0.000000000000E+00  0.000000000000E+00
 P   1.380469233217E+00  1.348234649407E+00  1.348234649407E+00
    2
GaP                                      E -2.2662732254354E+03 DE 1.8E-12(  2)
 GA  0.000000000000E+00  0.000000000000E+00  0.000000000000E+00
 P   1.368766141530E+00  1.389297633653E+00  1.389297633653E+00
    2
GaP                                      E -2.2662731263704E+03 DE 9.1E-13( 10)
 GA  1.532377279076E-02  0.000000000000E+00  0.000000000000E+00
 P   1.353442368739E+00  1.389297633653E+00  1.389297633653E+00
    2
GaP                                      E -2.2662732159362E+03 DE-1.4E-12(  9)
 GA  1.170256703416E-02  0.000000000000E+00  0.000000000000E+00
 P   1.357063574496E+00  1.389297633653E+00  1.389297633653E+00
    2
GaP                                      E -2.2662732254433E+03 DE-5.5E-12(  9)
 GA  1.170256703416E-02  0.000000000000E+00  0.000000000000E+00
 P   1.357063574496E+00  1.389297633653E+00  1.389297633653E+00
