    2
GaP                                     
 GA  0.000000000000E+00  0.000000000000E+00  0.000000000000E+00
 P   1.355306686945E+00  1.355306686945E+00  1.355306686945E+00
    2
GaP                                      E -2.2645210514893E+03 DE 2.7E-12( 11)
 GA  0.000000000000E+00  0.000000000000E+00  0.000000000000E+00
 P   1.355306686945E+00  1.355306686945E+00  1.355306686945E+00
    2
GaP                                      E -2.2645210514752E+03 DE 5.5E-12( 11)
 GA  0.000000000000E+00  0.000000000000E+00  0.000000000000E+00
 P   1.334977086641E+00  1.355306686945E+00  1.355306686945E+00
    2
GaP                                      E -2.2645208853286E+03 DE-2.7E-12( 10)
 GA  0.000000000000E+00  0.000000000000E+00  0.000000000000E+00
 P   1.334977086641E+00  1.355306686945E+00  1.355306686945E+00
    2
GaP                                      E -2.2645208853286E+03 DE 9.1E-13(  2)
 GA  0.000000000000E+00  0.000000000000E+00  0.000000000000E+00
 P   1.375636287249E+00  1.355306686945E+00  1.355306686945E+00
    2
GaP                                      E -2.2645208900500E+03 DE-4.5E-13( 10)
 GA  0.000000000000E+00  0.000000000000E+00  0.000000000000E+00
 P   1.375636287249E+00  1.355306686945E+00  1.355306686945E+00
    2
GaP                                      E -2.2645208900500E+03 DE-9.1E-13( 11)
 GA  0.000000000000E+00  0.000000000000E+00  0.000000000000E+00
 P   1.355306686945E+00  1.355306686945E+00  1.355306686945E+00
    2
GaP                                      E -2.2645210514702E+03 DE-4.5E-13( 11)
 GA  0.000000000000E+00  0.000000000000E+00  0.000000000000E+00
 P   1.355306686945E+00  1.334977086641E+00  1.334977086641E+00
    2
GaP                                      E -2.2645206134518E+03 DE-2.6E-11(  7)
 GA -1.215803998667E-02  0.000000000000E+00  0.000000000000E+00
 P   1.367464726932E+00  1.334977086641E+00  1.334977086641E+00
    2
GaP                                      E -2.2645207347838E+03 DE 3.6E-12(  9)
 GA -1.184335045981E-02  0.000000000000E+00  0.000000000000E+00
 P   1.367150037405E+00  1.334977086641E+00  1.334977086641E+00
    2
GaP                                      E -2.2645207348741E+03 DE-2.2E-11(  6)
 GA -1.184335045981E-02  0.000000000000E+00  0.000000000000E+00
 P   1.367150037405E+00  1.334977086641E+00  1.334977086641E+00
    2
GaP                                      E -2.2645207348741E+03 DE-9.1E-13(  2)
 GA  0.000000000000E+00  0.000000000000E+00  0.000000000000E+00
 P   1.355306686945E+00  1.375636287249E+00  1.375636287249E+00
    2
GaP                                      E -2.2645206134547E+03 DE-9.1E-13( 10)
 GA  1.216111686560E-02  0.000000000000E+00  0.000000000000E+00
 P   1.343145570079E+00  1.375636287249E+00  1.375636287249E+00
    2
GaP                                      E -2.2645207347867E+03 DE 9.1E-13(  9)
 GA  1.184343643099E-02  0.000000000000E+00  0.000000000000E+00
 P   1.343463250514E+00  1.375636287249E+00  1.375636287249E+00
    2
GaP                                      E -2.2645207348787E+03 DE-1.5E-11(  6)
 GA  1.184343643099E-02  0.000000000000E+00  0.000000000000E+00
 P   1.343463250514E+00  1.375636287249E+00  1.375636287249E+00
